[TITLE]


[JUNCTIONS]
;ID              	Elev        	Demand      	Pattern         
 0               	127.10      	0           	                	;
 1               	126.19      	0           	                	;
 2               	98.76       	0           	                	;
 3               	91.44       	0           	                	;
 4               	83.82       	0           	                	;
 5               	78.03       	0           	                	;
 6               	70.71       	0           	                	;
 7               	61.26       	0           	                	;
 8               	53.95       	0           	                	;
 9               	57.91       	0           	                	;
 10              	58.52       	0           	                	;
 11              	60.05       	0           	                	;
 12              	60.66       	0           	                	;
 13              	62.79       	0           	                	;
 14              	63.70       	0           	                	;
 15              	73.15       	0           	                	;
 16              	76.81       	0           	                	;
 17              	76.20       	0           	                	;
 18              	86.26       	0           	                	;
 19              	84.43       	0           	                	;
 20              	88.09       	0           	                	;
 21              	96.32       	0           	                	;
 22              	96.01       	0           	                	;
 23              	99.67       	0           	                	;
 24              	101.80      	0           	                	;
 25              	103.63      	0           	                	;
 26              	101.80      	0           	                	;
 27              	101.19      	0           	                	;
 28              	101.50      	0           	                	;
 29              	103.94      	0           	                	;
 30              	117.96      	0           	                	;
 31              	129.84      	0           	                	;
 32              	87.48       	0           	                	;
 33              	97.23       	0           	                	;

[RESERVOIRS]
;ID              	Head        	Pattern         

[TANKS]
;ID              	Elevation   	InitLevel   	MinLevel    	MaxLevel    	Diameter    	MinVol      	VolCurve

[PIPES]
;ID              	Node1           	Node2           	Length      	Diameter    	Roughness   	MinorLoss   	Status
 0               	0               	1               	116.43      	0.102       	0.007       	0           	Open  	;
 1               	1               	2               	214.15      	0.102       	0.007       	0           	Open  	;
 2               	2               	3               	57.79       	0.102       	0.007       	0           	Open  	;
 3               	3               	4               	62.33       	0.102       	0.007       	0           	Open  	;
 4               	4               	5               	70.59       	0.102       	0.007       	0           	Open  	;
 5               	5               	6               	37.98       	0.102       	0.007       	0           	Open  	;
 6               	6               	7               	73.46       	0.102       	0.007       	0           	Open  	;
 7               	7               	8               	77.42       	0.102       	0.007       	0           	Open  	;
 8               	8               	9               	75.90       	0.102       	0.007       	0           	Open  	;
 9               	9               	10              	101.19      	0.102       	0.007       	0           	Open  	;
 10              	10              	11              	77.72       	0.102       	0.007       	0           	Open  	;
 11              	11              	12              	82.91       	0.102       	0.007       	0           	Open  	;
 12              	12              	13              	41.45       	0.102       	0.007       	0           	Open  	;
 13              	13              	14              	39.93       	0.102       	0.007       	0           	Open  	;
 14              	14              	15              	75.22       	0.102       	0.007       	0           	Open  	;
 15              	15              	16              	108.51      	0.102       	0.007       	0           	Open  	;
 16              	16              	17              	104.24      	0.051       	0.007       	0           	Open  	;
 17              	16              	18              	58.83       	0.102       	0.007       	0           	Open  	;
 18              	18              	19              	103.33      	0.051       	0.007       	0           	Open  	;
 19              	21              	22              	101.50      	0.051       	0.007       	0           	Open  	;
 20              	24              	25              	123.14      	0.102       	0.007       	0           	Open  	;
 21              	24              	26              	40.84       	0.051       	0.007       	0           	Open  	;
 22              	26              	27              	58.83       	0.051       	0.007       	0           	Open  	;
 23              	27              	28              	19.81       	0.051       	0.007       	0           	Open  	;
 24              	28              	29              	20.42       	0.051       	0.007       	0           	Open  	;
 25              	29              	30              	256.03      	0.051       	0.007       	0           	Open  	;
 26              	30              	31              	130.76      	0.051       	0.007       	0           	Open  	;
 27              	18              	32              	10.36       	0.102       	0.007       	0           	Open  	;
 28              	32              	21              	60.96       	0.102       	0.007       	0           	Open  	;
 29              	32              	20              	91.44       	0.051       	0.007       	0           	Open  	;
 30              	21              	33              	13.11       	0.102       	0.007       	0           	Open  	;
 31              	33              	24              	60.96       	0.102       	0.007       	0           	Open  	;
 32              	33              	23              	91.44       	0.051       	0.007       	0           	Open  	;

[PUMPS]
;ID              	Node1           	Node2           	Parameters

[VALVES]
;ID              	Node1           	Node2           	Diameter    	Type	Setting     	MinorLoss   

[TAGS]

[DEMANDS]
;Junction        	Demand      	Pattern         	Category

[STATUS]
;ID              	Status/Setting

[PATTERNS]
;ID              	Multipliers

[CURVES]
;ID              	X-Value     	Y-Value

[CONTROLS]

[RULES]

[ENERGY]
 Global Efficiency  	75
 Global Price       	0
 Demand Charge      	0

[EMITTERS]
;Junction        	Coefficient

[QUALITY]
;Node            	InitQual

[SOURCES]
;Node            	Type        	Quality     	Pattern

[REACTIONS]
;Type     	Pipe/Tank       	Coefficient


[REACTIONS]
 Order Bulk            	1
 Order Tank            	1
 Order Wall            	1
 Global Bulk           	0
 Global Wall           	0
 Limiting Potential    	0
 Roughness Correlation 	0

[MIXING]
;Tank            	Model

[TIMES]
 Duration           	0
 Hydraulic Timestep 	1:00
 Quality Timestep   	0:05
 Pattern Timestep   	1:00
 Pattern Start      	0:00
 Report Timestep    	1:00
 Report Start       	0:00
 Start ClockTime    	12 am
 Statistic          	None

[REPORT]
 Status             	No
 Summary            	No
 Page               	0

[OPTIONS]
 Units              	LPM
 Headloss           	H-W
 Specific Gravity   	1
 Viscosity          	1
 Trials             	40
 Accuracy           	0.001
 CHECKFREQ          	2
 MAXCHECK           	10
 DAMPLIMIT          	0
 Unbalanced         	Continue 10
 Pattern            	1
 Demand Multiplier  	1.0
 Emitter Exponent   	0.5
 Quality            	None mg/L
 Diffusivity        	1
 Tolerance          	0.01

[COORDINATES]
;Node            	X-Coord         	Y-Coord
 0               	100.00          	0.00            
 1               	93.85           	7.12            
 2               	79.17           	8.07            
 3               	75.61           	9.73            
 4               	73.31           	14.71           
 5               	72.65           	21.59           
 6               	70.50           	25.39           
 7               	65.97           	26.33           
 8               	60.86           	24.67           
 9               	57.38           	30.25           
 10              	55.82           	39.86           
 11              	52.41           	46.38           
 12              	47.59           	51.13           
 13              	44.70           	51.25           
 14              	42.11           	49.82           
 15              	38.32           	54.33           
 16              	41.44           	64.06           
 17              	45.44           	73.43           
 18              	37.81           	68.33           
 19              	41.73           	77.22           
 20              	32.86           	61.88           
 21              	33.65           	72.84           
 22              	37.06           	81.61           
 23              	28.82           	66.73           
 24              	29.43           	77.22           
 25              	33.80           	88.14           
 26              	27.13           	79.36           
 27              	23.28           	77.82           
 28              	22.24           	75.80           
 29              	20.90           	75.56           
 30              	7.71            	92.88           
 31              	0.00            	100.00          
 32              	36.06           	69.88           
 33              	32.17           	74.48           

[VERTICES]
;Link            	X-Coord         	Y-Coord

[LABELS]
;X-Coord           Y-Coord          Label & Anchor Node

[BACKDROP]
 DIMENSIONS     	-5.00           	-5.00           	105.00          	105.00          
 UNITS          	None
 FILE           	
 OFFSET         	0.00            	0.00            

[END]
