[TITLE]

[JUNCTIONS]
;ID              	Elev        	Demand      	Pattern
 0               	417.00         	0           	                	;
 1               	414.00         	0           	                	;
 2               	324.00         	0           	                	;
 3               	300.00         	0           	                	;
 4               	275.00         	0           	                	;
 5               	256.00         	0           	                	;
 6               	232.00         	0           	                	;
 7               	201.00         	0           	                	;
 8               	177.00         	0           	                	;
 9               	190.00         	0           	                	;
 10               	192.00         	0           	                	;
 11               	197.00         	0           	                	;
 12               	199.00         	0           	                	;
 13               	206.00         	0           	                	;
 14               	209.00         	0           	                	;
 15               	240.00         	0           	                	;
 16               	252.00         	0           	                	;
 17               	250.00         	0           	                	;
 18               	283.00         	0           	                	;
 19               	289.00         	0           	                	;
 20               	316.00         	0           	                	;
 21               	315.00         	0           	                	;
 22               	334.00         	0           	                	;
 23               	340.00         	0           	                	;
 24               	334.00         	0           	                	;
 25               	332.00         	0           	                	;
 26               	333.00         	0           	                	;
 27               	341.00         	0           	                	;
 28               	387.00         	0           	                	;
 29               	426.00         	0           	                	;

[RESERVOIRS]
;ID              	Head        	Pattern         

[TANKS]
;ID              	Elevation   	InitLevel   	MinLevel    	MaxLevel    	Diameter    	MinVol      	VolCurve


[PIPES]
;ID              	Node1           	Node2           	Length      	Diameter    	Roughness   	MinorLoss   	Status
 0               	0               	1               	116.43     	1.219           	0.007         	0           	Open  	;
 1               	1               	2               	214.15     	1.219           	0.007         	0           	Open  	;
 2               	2               	3               	57.79     	1.219           	0.007         	0           	Open  	;
 3               	3               	4               	62.33     	1.219           	0.007         	0           	Open  	;
 4               	4               	5               	70.59     	1.219           	0.007         	0           	Open  	;
 5               	5               	6               	37.98     	1.219           	0.007         	0           	Open  	;
 6               	6               	7               	73.46     	1.219           	0.007         	0           	Open  	;
 7               	7               	8               	77.42     	1.219           	0.007         	0           	Open  	;
 8               	8               	9               	75.90     	1.219           	0.007         	0           	Open  	;
 9               	9               	10               	101.19     	1.219           	0.007         	0           	Open  	;
 10               	10               	11               	77.72     	1.219           	0.007         	0           	Open  	;
 11               	11               	12               	82.91     	1.219           	0.007         	0           	Open  	;
 12               	12               	13               	41.45     	1.219           	0.007         	0           	Open  	;
 13               	13               	14               	39.93     	1.219           	0.007         	0           	Open  	;
 14               	14               	15               	75.22     	1.219           	0.007         	0           	Open  	;
 15               	15               	16               	108.51     	1.219           	0.007         	0           	Open  	;
 16               	17               	16               	104.24     	0.610           	0.007         	0           	Open  	;
 17               	16               	18               	58.83     	1.219           	0.007         	0           	Open  	;
 18               	19               	18               	91.44     	0.610           	0.007         	0           	Open  	;
 19               	18               	20               	71.32     	1.219           	0.007         	0           	Open  	;
 20               	20               	21               	101.50     	0.610           	0.007         	0           	Open  	;
 21               	20               	22               	74.07     	1.219           	0.007         	0           	Open  	;
 22               	23               	22               	123.14     	1.219           	0.007         	0           	Open  	;
 23               	22               	24               	40.84     	0.610           	0.007         	0           	Open  	;
 24               	24               	25               	58.83     	0.610           	0.007         	0           	Open  	;
 25               	25               	26               	19.81     	0.610           	0.007         	0           	Open  	;
 26               	26               	27               	20.42     	0.610           	0.007         	0           	Open  	;
 27               	27               	28               	256.03     	0.610           	0.007         	0           	Open  	;
 28               	28               	29               	130.76     	0.610           	0.007         	0           	Open  	;

[COORDINATES]
;Node            	X-Coord         	Y-Coord
 0              	100.0              	0.0   
 1              	93.8474502005              	7.11742245485   
 2              	79.1701776265              	8.06662662491   
 3              	75.6115811116              	9.72692951221   
 4              	73.3135596077              	14.7089107212   
 5              	72.6461963666              	21.5893002703   
 6              	70.4964778051              	25.3850444034   
 7              	65.9745862685              	26.3342485735   
 8              	60.8601570663              	24.6739456862   
 9              	57.3757120226              	30.2490454331   
 10              	55.819205231              	39.857994766   
 11              	52.4089116586              	46.3822986829   
 12              	47.5910883414              	51.1272469861   
 13              	44.6998550676              	51.2452271655   
 14              	42.1052276787              	49.8219571839   
 15              	38.3248508544              	54.3298725814   
 16              	41.4378644376              	64.0568020936   
 17              	45.4413697799              	73.4287185207   
 18              	37.8057905558              	68.3276845854   
 19              	34.3954969834              	60.142005234   
 20              	33.6546563753              	72.8355999828   
 21              	37.0642758435              	81.613325325   
 22              	29.4293707237              	77.2244626539   
 23              	33.8029593178              	88.1376292419   
 24              	27.1313492197              	79.3599038998   
 25              	23.2761468199              	77.8175811918   
 26              	22.2387003269              	75.8011926724   
 27              	20.9039738448              	75.5641597666   
 28              	7.70905659105              	92.8825775452   
 29              	0.0              	100.0   
