[TITLE]

[JUNCTIONS]
;ID              	Elev        	Demand      	Pattern
 0               	423.00         	0           	                	;
 1               	452.00         	0           	                	;
 2               	462.00         	0           	                	;
 3               	468.00         	0           	                	;
 4               	443.00         	0           	                	;
 5               	450.00         	0           	                	;
 6               	425.00         	0           	                	;
 7               	421.00         	0           	                	;
 8               	446.00         	0           	                	;
 9               	422.00         	0           	                	;
 10               	445.00         	0           	                	;
 11               	452.00         	0           	                	;
 12               	420.00         	0           	                	;
 13               	468.00         	0           	                	;
 14               	441.00         	0           	                	;
 15               	451.00         	0           	                	;
 16               	430.00         	0           	                	;
 17               	430.00         	0           	                	;
 18               	433.00         	0           	                	;
 19               	430.00         	0           	                	;
 20               	425.00         	0           	                	;
 21               	425.00         	0           	                	;
 22               	446.00         	0           	                	;
 23               	444.00         	0           	                	;
 24               	466.00         	0           	                	;
 25               	495.00         	0           	                	;
 26               	520.00         	0           	                	;

[PIPES]
;ID              	Node1           	Node2           	Length      	Diameter    	Roughness   	MinorLoss   	Status
 0               	0               	1               	168.34     	0.914           	0.010         	0           	Open  	;
 1               	1               	2               	65.02     	0.914           	0.010         	0           	Open  	;
 2               	2               	3               	95.35     	0.914           	0.010         	0           	Open  	;
 3               	1               	4               	54.18     	0.914           	0.010         	0           	Open  	;
 4               	4               	5               	34.57     	0.914           	0.010         	0           	Open  	;
 5               	5               	6               	103.76     	0.610           	0.010         	0           	Open  	;
 6               	6               	7               	208.82     	0.610           	0.010         	0           	Open  	;
 7               	5               	8               	56.73     	0.914           	0.010         	0           	Open  	;
 8               	8               	9               	112.18     	0.610           	0.010         	0           	Open  	;
 9               	8               	10               	64.75     	0.914           	0.010         	0           	Open  	;
 10               	10               	11               	50.44     	0.914           	0.010         	0           	Open  	;
 11               	11               	12               	97.68     	0.610           	0.010         	0           	Open  	;
 12               	11               	13               	124.00     	0.914           	0.010         	0           	Open  	;
 13               	13               	14               	68.47     	0.610           	0.010         	0           	Open  	;
 14               	13               	15               	53.48     	0.914           	0.010         	0           	Open  	;
 15               	15               	16               	80.03     	0.914           	0.010         	0           	Open  	;
 16               	16               	17               	118.70     	0.610           	0.010         	0           	Open  	;
 17               	17               	18               	134.97     	0.610           	0.010         	0           	Open  	;
 18               	17               	19               	62.54     	0.610           	0.010         	0           	Open  	;
 19               	16               	20               	39.00     	0.914           	0.010         	0           	Open  	;
 20               	20               	21               	65.74     	0.914           	0.010         	0           	Open  	;
 21               	21               	22               	192.59     	0.914           	0.010         	0           	Open  	;
 22               	22               	23               	87.74     	0.610           	0.010         	0           	Open  	;
 23               	22               	24               	61.90     	0.914           	0.010         	0           	Open  	;
 24               	25               	0               	49.83     	2.438           	0.010         	0           	Open  	;
 25               	26               	24               	58.81     	2.438           	0.010         	0           	Open  	;

[COORDINATES]
;Node            	X-Coord         	Y-Coord
 0              	35.4169172281              	83.6856690593   
 1              	5.21521103233              	79.0887591954   
 2              	1.81749615243              	87.3813793799   
 3              	0.0              	100.0   
 4              	8.71811074986              	72.3430194233   
 5              	15.0518279944              	72.182461556   
 6              	33.9512602817              	73.7347937741   
 7              	57.047486062              	51.5768288031   
 8              	16.950251241              	64.7613263819   
 9              	37.3665059676              	66.554341932   
 10              	18.7661166206              	56.2469360999   
 11              	27.9677514702              	56.9097178069   
 12              	45.6779427804              	58.8292064773   
 13              	29.6158511105              	40.4535814563   
 14              	17.0876438394              	39.9074362336   
 15              	30.1670522764              	33.3490164095   
 16              	41.2124794879              	26.3414730399   
 17              	56.4019039272              	37.6514703067   
 18              	73.6958405103              	50.4951204147   
 19              	62.8222559702              	30.7570555573   
 20              	36.7502777411              	22.28714207   
 21              	44.8851834111              	15.8329788929   
 22              	79.6153414939              	11.2283371116   
 23              	75.2102167907              	0.0   
 24              	90.9626654979              	11.1495417121   
 25              	69.1131654318              	86.6088892202   
 26              	100.0              	11.2283371116   
