[TITLE]
[TITLE]


[JUNCTIONS]
[JUNCTIONS]
;ID              	Elev        	Demand      	Pattern         
 0               	0         	0           	                	;
 1               	0         	0           	                	;
 2               	0         	0           	                	;
 3               	0         	0           	                	;

[RESERVOIRS]
[RESERVOIRS]
;ID              	Head        	Pattern         

[TANKS]
[TANKS]
;ID              	Elevation   	InitLevel   	MinLevel    	MaxLevel    	Diameter    	MinVol      	VolCurve

[PIPES]
[PIPES]
;ID              	Node1           	Node2           	Length      	Diameter    	Roughness   	MinorLoss   	Status

0               0                       1                   100             1.00           0.015

1               1                       2                   100             1.00           0.015

2               1                       3                   175             1.00           0.015

[PUMPS]
[PUMPS]
;ID              	Node1           	Node2           	Parameters

[VALVES]
[VALVES]
;ID              	Node1           	Node2           	Diameter    	Type	Setting     	MinorLoss   

[TAGS]
[TAGS]

[DEMANDS]
[DEMANDS]
;Junction        	Demand      	Pattern         	Category

[STATUS]
[STATUS]
;ID              	Status/Setting

[PATTERNS]
[PATTERNS]
;ID              	Multipliers

[CURVES]
[CURVES]
;ID              	X-Value     	Y-Value

[CONTROLS]
[CONTROLS]

[RULES]
[RULES]

[ENERGY]
[ENERGY]
 Global Efficiency  	75
 Global Price       	0
 Demand Charge      	0

[EMITTERS]
[EMITTERS]
;Junction        	Coefficient

[QUALITY]
[QUALITY]
;Node            	InitQual

[SOURCES]
[SOURCES]
;Node            	Type        	Quality     	Pattern

[REACTIONS]
[REACTIONS]
;Type     	Pipe/Tank       	Coefficient


[REACTIONS]
[REACTIONS]
 Order Bulk            	1
 Order Tank            	1
 Order Wall            	1
 Global Bulk           	0
 Global Wall           	0
 Limiting Potential    	0
 Roughness Correlation 	0

[MIXING]
[MIXING]
;Tank            	Model

[TIMES]
[TIMES]
 Duration           	0
 Hydraulic Timestep 	1:00
 Quality Timestep   	0:05
 Pattern Timestep   	1:00
 Pattern Start      	0:00
 Report Timestep    	1:00
 Report Start       	0:00
 Start ClockTime    	12 am
 Statistic          	None

[REPORT]
[REPORT]
 Status             	No
 Summary            	No
 Page               	0

[OPTIONS]
[OPTIONS]
 Units              	LPM
 Headloss           	H-W
 Specific Gravity   	1
 Viscosity          	1
 Trials             	40
 Accuracy           	0.001
 CHECKFREQ          	2
 MAXCHECK           	10
 DAMPLIMIT          	0
 Unbalanced         	Continue 10
 Pattern            	1
 Demand Multiplier  	1.0
 Emitter Exponent   	0.5
 Quality            	None mg/L
 Diffusivity        	1
 Tolerance          	0.01

[COORDINATES]
[COORDINATES]
;Node            	X-Coord         	Y-Coord
 0               	0       		0         
 1               	10	         	0         
 2               	26	        	4        
 3               	26	            -8         

[LABELS]
[LABELS]
;X-Coord           Y-Coord          Label & Anchor Node

[BACKDROP]
[BACKDROP]
 DIMENSIONS     	0.00            	0.00            	10000.00        	10000.00        
 UNITS          	None
 FILE           	
 OFFSET         	0.00            	0.00            

[END]
[END]
